<?xml version="1.0" encoding="UTF-8"?>

<!-- generated on 2022-02-14 10:43:15 by Eclipse SUMO netedit Version v1_12_0+0538-6866f356735
-->

<routes xmlns:xsi="http://www.w3.org/2001/XMLSchema-instance" xsi:noNamespaceSchemaLocation="http://sumo.dlr.de/xsd/routes_file.xsd">
    <route id="route_0" edges="gneE4 gneE5" color="yellow"/>
</routes>
